Circuit: *

Fatal Error: Multiple instances of "E:1_neuron_0:1"
